<?xml version="1.0" encoding="UTF-8"?>

<!-- generated on 2025-07-06 13:36:32 by Eclipse SUMO netconvert Version 1.23.1
<netconvertConfiguration xmlns:xsi="http://www.w3.org/2001/XMLSchema-instance" xsi:noNamespaceSchemaLocation="http://sumo.dlr.de/xsd/netconvertConfiguration.xsd">

    <input>
        <node-files value="nodes.nod.xml"/>
        <edge-files value="edges.edg.xml"/>
    </input>

    <output>
        <output-file value="net.net.xml"/>
    </output>

</netconvertConfiguration>
-->

<net version="1.20" junctionCornerDetail="5" limitTurnSpeed="5.50" xmlns:xsi="http://www.w3.org/2001/XMLSchema-instance" xsi:noNamespaceSchemaLocation="http://sumo.dlr.de/xsd/net_file.xsd">

    <location netOffset="250.00,250.00" convBoundary="0.00,0.00,500.00,500.00" origBoundary="-250.00,-250.00,250.00,250.00" projParameter="!"/>

    <edge id=":center_0" function="internal">
        <lane id=":center_0_0" index="0" speed="6.51" length="9.03" shape="248.40,257.20 248.05,254.75 247.00,253.00 245.25,251.95 242.80,251.60"/>
    </edge>
    <edge id=":center_1" function="internal">
        <lane id=":center_1_0" index="0" speed="13.89" length="14.40" shape="248.40,257.20 248.40,242.80"/>
    </edge>
    <edge id=":center_2" function="internal">
        <lane id=":center_2_0" index="0" speed="8.00" length="4.07" shape="248.40,257.20 248.95,253.35 249.04,253.20"/>
    </edge>
    <edge id=":center_3" function="internal">
        <lane id=":center_3_0" index="0" speed="3.65" length="1.44" shape="248.40,257.20 249.20,256.00"/>
    </edge>
    <edge id=":center_16" function="internal">
        <lane id=":center_16_0" index="0" speed="8.00" length="10.13" shape="249.04,253.20 250.60,250.60 253.35,248.95 257.20,248.40"/>
    </edge>
    <edge id=":center_17" function="internal">
        <lane id=":center_17_0" index="0" speed="3.65" length="3.23" shape="249.20,256.00 250.00,255.60 250.80,256.00 251.60,257.20"/>
    </edge>
    <edge id=":center_4" function="internal">
        <lane id=":center_4_0" index="0" speed="6.51" length="9.03" shape="257.20,251.60 254.75,251.95 253.00,253.00 251.95,254.75 251.60,257.20"/>
    </edge>
    <edge id=":center_5" function="internal">
        <lane id=":center_5_0" index="0" speed="13.89" length="14.40" shape="257.20,251.60 242.80,251.60"/>
    </edge>
    <edge id=":center_6" function="internal">
        <lane id=":center_6_0" index="0" speed="8.00" length="4.07" shape="257.20,251.60 253.35,251.05 253.20,250.96"/>
    </edge>
    <edge id=":center_7" function="internal">
        <lane id=":center_7_0" index="0" speed="3.65" length="1.44" shape="257.20,251.60 256.00,250.80"/>
    </edge>
    <edge id=":center_18" function="internal">
        <lane id=":center_18_0" index="0" speed="8.00" length="10.13" shape="253.20,250.96 250.60,249.40 248.95,246.65 248.40,242.80"/>
    </edge>
    <edge id=":center_19" function="internal">
        <lane id=":center_19_0" index="0" speed="3.65" length="3.23" shape="256.00,250.80 255.60,250.00 256.00,249.20 257.20,248.40"/>
    </edge>
    <edge id=":center_8" function="internal">
        <lane id=":center_8_0" index="0" speed="6.51" length="9.03" shape="251.60,242.80 251.95,245.25 253.00,247.00 254.75,248.05 257.20,248.40"/>
    </edge>
    <edge id=":center_9" function="internal">
        <lane id=":center_9_0" index="0" speed="13.89" length="14.40" shape="251.60,242.80 251.60,257.20"/>
    </edge>
    <edge id=":center_10" function="internal">
        <lane id=":center_10_0" index="0" speed="8.00" length="4.07" shape="251.60,242.80 251.05,246.65 250.96,246.80"/>
    </edge>
    <edge id=":center_11" function="internal">
        <lane id=":center_11_0" index="0" speed="3.65" length="1.44" shape="251.60,242.80 250.80,244.00"/>
    </edge>
    <edge id=":center_20" function="internal">
        <lane id=":center_20_0" index="0" speed="8.00" length="10.13" shape="250.96,246.80 249.40,249.40 246.65,251.05 242.80,251.60"/>
    </edge>
    <edge id=":center_21" function="internal">
        <lane id=":center_21_0" index="0" speed="3.65" length="3.23" shape="250.80,244.00 250.00,244.40 249.20,244.00 248.40,242.80"/>
    </edge>
    <edge id=":center_12" function="internal">
        <lane id=":center_12_0" index="0" speed="6.51" length="9.03" shape="242.80,248.40 245.25,248.05 247.00,247.00 248.05,245.25 248.40,242.80"/>
    </edge>
    <edge id=":center_13" function="internal">
        <lane id=":center_13_0" index="0" speed="13.89" length="14.40" shape="242.80,248.40 257.20,248.40"/>
    </edge>
    <edge id=":center_14" function="internal">
        <lane id=":center_14_0" index="0" speed="8.00" length="4.07" shape="242.80,248.40 246.65,248.95 246.80,249.04"/>
    </edge>
    <edge id=":center_15" function="internal">
        <lane id=":center_15_0" index="0" speed="3.65" length="1.44" shape="242.80,248.40 244.00,249.20"/>
    </edge>
    <edge id=":center_22" function="internal">
        <lane id=":center_22_0" index="0" speed="8.00" length="10.13" shape="246.80,249.04 249.40,250.60 251.05,253.35 251.60,257.20"/>
    </edge>
    <edge id=":center_23" function="internal">
        <lane id=":center_23_0" index="0" speed="3.65" length="3.23" shape="244.00,249.20 244.40,250.00 244.00,250.80 242.80,251.60"/>
    </edge>
    <edge id=":n1_0" function="internal">
        <lane id=":n1_0_0" index="0" speed="3.65" length="4.67" shape="0.00,251.60 -1.20,250.80 -1.60,250.00 -1.20,249.20 0.00,248.40"/>
    </edge>
    <edge id=":n2_0" function="internal">
        <lane id=":n2_0_0" index="0" speed="3.65" length="4.67" shape="251.60,500.00 250.80,501.20 250.00,501.60 249.20,501.20 248.40,500.00"/>
    </edge>
    <edge id=":n3_0" function="internal">
        <lane id=":n3_0_0" index="0" speed="3.65" length="4.67" shape="500.00,248.40 501.20,249.20 501.60,250.00 501.20,250.80 500.00,251.60"/>
    </edge>
    <edge id=":n4_0" function="internal">
        <lane id=":n4_0_0" index="0" speed="3.65" length="4.67" shape="248.40,0.00 249.20,-1.20 250.00,-1.60 250.80,-1.20 251.60,0.00"/>
    </edge>

    <edge id="1" from="n1" to="center" priority="1">
        <lane id="1_0" index="0" speed="13.89" length="242.80" shape="0.00,248.40 242.80,248.40"/>
    </edge>
    <edge id="2" from="n2" to="center" priority="1">
        <lane id="2_0" index="0" speed="13.89" length="242.80" shape="248.40,500.00 248.40,257.20"/>
    </edge>
    <edge id="3" from="n3" to="center" priority="1">
        <lane id="3_0" index="0" speed="13.89" length="242.80" shape="500.00,251.60 257.20,251.60"/>
    </edge>
    <edge id="4" from="n4" to="center" priority="1">
        <lane id="4_0" index="0" speed="13.89" length="242.80" shape="251.60,0.00 251.60,242.80"/>
    </edge>
    <edge id="5" from="center" to="n1" priority="1">
        <lane id="5_0" index="0" speed="13.89" length="242.80" shape="242.80,251.60 0.00,251.60"/>
    </edge>
    <edge id="6" from="center" to="n2" priority="1">
        <lane id="6_0" index="0" speed="13.89" length="242.80" shape="251.60,257.20 251.60,500.00"/>
    </edge>
    <edge id="7" from="center" to="n3" priority="1">
        <lane id="7_0" index="0" speed="13.89" length="242.80" shape="257.20,248.40 500.00,248.40"/>
    </edge>
    <edge id="8" from="center" to="n4" priority="1">
        <lane id="8_0" index="0" speed="13.89" length="242.80" shape="248.40,242.80 248.40,0.00"/>
    </edge>

    <tlLogic id="center" type="static" programID="0" offset="0">
        <phase duration="42" state="GGggrrrrGGggrrrr"/>
        <phase duration="3"  state="yyyyrrrryyyyrrrr"/>
        <phase duration="42" state="rrrrGGggrrrrGGgg"/>
        <phase duration="3"  state="rrrryyyyrrrryyyy"/>
    </tlLogic>

    <junction id="center" type="traffic_light" x="250.00" y="250.00" incLanes="2_0 3_0 4_0 1_0" intLanes=":center_0_0 :center_1_0 :center_16_0 :center_17_0 :center_4_0 :center_5_0 :center_18_0 :center_19_0 :center_8_0 :center_9_0 :center_20_0 :center_21_0 :center_12_0 :center_13_0 :center_22_0 :center_23_0" shape="246.80,257.20 253.20,257.20 253.64,254.98 254.20,254.20 254.98,253.64 255.98,253.31 257.20,253.20 257.20,246.80 254.98,246.36 254.20,245.80 253.64,245.02 253.31,244.02 253.20,242.80 246.80,242.80 246.36,245.02 245.80,245.80 245.02,246.36 244.02,246.69 242.80,246.80 242.80,253.20 245.02,253.64 245.80,254.20 246.36,254.98 246.69,255.98">
        <request index="0"  response="0000000000000000" foes="1000010000100000" cont="0"/>
        <request index="1"  response="0100000001000000" foes="0111110001100000" cont="0"/>
        <request index="2"  response="0100011101000000" foes="0110011111100000" cont="1"/>
        <request index="3"  response="0100001000010000" foes="0100001000010000" cont="1"/>
        <request index="4"  response="0000001000000000" foes="0100001000001000" cont="0"/>
        <request index="5"  response="0000011000000111" foes="1100011000000111" cont="0"/>
        <request index="6"  response="0011011000000110" foes="0111111000000110" cont="1"/>
        <request index="7"  response="0010000100000100" foes="0010000100000100" cont="1"/>
        <request index="8"  response="0000000000000000" foes="0010000010000100" cont="0"/>
        <request index="9"  response="0100000001000000" foes="0110000001111100" cont="0"/>
        <request index="10" response="0100000001000011" foes="1110000001100111" cont="1"/>
        <request index="11" response="0001000001000010" foes="0001000001000010" cont="1"/>
        <request index="12" response="0000000000000010" foes="0000100001000010" cont="0"/>
        <request index="13" response="0000011100000110" foes="0000011111000110" cont="0"/>
        <request index="14" response="0000011001110110" foes="0000011001111110" cont="1"/>
        <request index="15" response="0000010000100001" foes="0000010000100001" cont="1"/>
    </junction>
    <junction id="n1" type="priority" x="0.00" y="250.00" incLanes="5_0" intLanes=":n1_0_0" shape="0.00,250.00 0.00,253.20 0.00,250.00">
        <request index="0" response="0" foes="0" cont="0"/>
    </junction>
    <junction id="n2" type="priority" x="250.00" y="500.00" incLanes="6_0" intLanes=":n2_0_0" shape="250.00,500.00 253.20,500.00 250.00,500.00">
        <request index="0" response="0" foes="0" cont="0"/>
    </junction>
    <junction id="n3" type="priority" x="500.00" y="250.00" incLanes="7_0" intLanes=":n3_0_0" shape="500.00,250.00 500.00,246.80 500.00,250.00">
        <request index="0" response="0" foes="0" cont="0"/>
    </junction>
    <junction id="n4" type="priority" x="250.00" y="0.00" incLanes="8_0" intLanes=":n4_0_0" shape="250.00,0.00 246.80,0.00 250.00,0.00">
        <request index="0" response="0" foes="0" cont="0"/>
    </junction>

    <junction id=":center_16_0" type="internal" x="249.04" y="253.20" incLanes=":center_2_0 4_0" intLanes=":center_5_0 :center_6_0 :center_7_0 :center_8_0 :center_9_0 :center_13_0 :center_14_0"/>
    <junction id=":center_17_0" type="internal" x="249.20" y="256.00" incLanes=":center_3_0 1_0 3_0 4_0" intLanes=":center_4_0 :center_9_0 :center_14_0"/>
    <junction id=":center_18_0" type="internal" x="253.20" y="250.96" incLanes=":center_6_0 1_0" intLanes=":center_1_0 :center_2_0 :center_9_0 :center_10_0 :center_11_0 :center_12_0 :center_13_0"/>
    <junction id=":center_19_0" type="internal" x="256.00" y="250.80" incLanes=":center_7_0 1_0 2_0 4_0" intLanes=":center_2_0 :center_8_0 :center_13_0"/>
    <junction id=":center_20_0" type="internal" x="250.96" y="246.80" incLanes=":center_10_0 2_0" intLanes=":center_0_0 :center_1_0 :center_5_0 :center_6_0 :center_13_0 :center_14_0 :center_15_0"/>
    <junction id=":center_21_0" type="internal" x="250.80" y="244.00" incLanes=":center_11_0 1_0 2_0 3_0" intLanes=":center_1_0 :center_6_0 :center_12_0"/>
    <junction id=":center_22_0" type="internal" x="246.80" y="249.04" incLanes=":center_14_0 3_0" intLanes=":center_1_0 :center_2_0 :center_3_0 :center_4_0 :center_5_0 :center_9_0 :center_10_0"/>
    <junction id=":center_23_0" type="internal" x="244.00" y="249.20" incLanes=":center_15_0 2_0 3_0 4_0" intLanes=":center_0_0 :center_5_0 :center_10_0"/>

    <connection from="1" to="8" fromLane="0" toLane="0" via=":center_12_0" tl="center" linkIndex="12" dir="r" state="o"/>
    <connection from="1" to="7" fromLane="0" toLane="0" via=":center_13_0" tl="center" linkIndex="13" dir="s" state="o"/>
    <connection from="1" to="6" fromLane="0" toLane="0" via=":center_14_0" tl="center" linkIndex="14" dir="l" state="o"/>
    <connection from="1" to="5" fromLane="0" toLane="0" via=":center_15_0" tl="center" linkIndex="15" dir="t" state="o"/>
    <connection from="2" to="5" fromLane="0" toLane="0" via=":center_0_0" tl="center" linkIndex="0" dir="r" state="O"/>
    <connection from="2" to="8" fromLane="0" toLane="0" via=":center_1_0" tl="center" linkIndex="1" dir="s" state="O"/>
    <connection from="2" to="7" fromLane="0" toLane="0" via=":center_2_0" tl="center" linkIndex="2" dir="l" state="o"/>
    <connection from="2" to="6" fromLane="0" toLane="0" via=":center_3_0" tl="center" linkIndex="3" dir="t" state="o"/>
    <connection from="3" to="6" fromLane="0" toLane="0" via=":center_4_0" tl="center" linkIndex="4" dir="r" state="o"/>
    <connection from="3" to="5" fromLane="0" toLane="0" via=":center_5_0" tl="center" linkIndex="5" dir="s" state="o"/>
    <connection from="3" to="8" fromLane="0" toLane="0" via=":center_6_0" tl="center" linkIndex="6" dir="l" state="o"/>
    <connection from="3" to="7" fromLane="0" toLane="0" via=":center_7_0" tl="center" linkIndex="7" dir="t" state="o"/>
    <connection from="4" to="7" fromLane="0" toLane="0" via=":center_8_0" tl="center" linkIndex="8" dir="r" state="O"/>
    <connection from="4" to="6" fromLane="0" toLane="0" via=":center_9_0" tl="center" linkIndex="9" dir="s" state="O"/>
    <connection from="4" to="5" fromLane="0" toLane="0" via=":center_10_0" tl="center" linkIndex="10" dir="l" state="o"/>
    <connection from="4" to="8" fromLane="0" toLane="0" via=":center_11_0" tl="center" linkIndex="11" dir="t" state="o"/>
    <connection from="5" to="1" fromLane="0" toLane="0" via=":n1_0_0" dir="t" state="M"/>
    <connection from="6" to="2" fromLane="0" toLane="0" via=":n2_0_0" dir="t" state="M"/>
    <connection from="7" to="3" fromLane="0" toLane="0" via=":n3_0_0" dir="t" state="M"/>
    <connection from="8" to="4" fromLane="0" toLane="0" via=":n4_0_0" dir="t" state="M"/>

    <connection from=":center_0" to="5" fromLane="0" toLane="0" dir="r" state="M"/>
    <connection from=":center_1" to="8" fromLane="0" toLane="0" dir="s" state="M"/>
    <connection from=":center_2" to="7" fromLane="0" toLane="0" via=":center_16_0" dir="l" state="m"/>
    <connection from=":center_16" to="7" fromLane="0" toLane="0" dir="l" state="M"/>
    <connection from=":center_3" to="6" fromLane="0" toLane="0" via=":center_17_0" dir="t" state="m"/>
    <connection from=":center_17" to="6" fromLane="0" toLane="0" dir="t" state="M"/>
    <connection from=":center_4" to="6" fromLane="0" toLane="0" dir="r" state="M"/>
    <connection from=":center_5" to="5" fromLane="0" toLane="0" dir="s" state="M"/>
    <connection from=":center_6" to="8" fromLane="0" toLane="0" via=":center_18_0" dir="l" state="m"/>
    <connection from=":center_18" to="8" fromLane="0" toLane="0" dir="l" state="M"/>
    <connection from=":center_7" to="7" fromLane="0" toLane="0" via=":center_19_0" dir="t" state="m"/>
    <connection from=":center_19" to="7" fromLane="0" toLane="0" dir="t" state="M"/>
    <connection from=":center_8" to="7" fromLane="0" toLane="0" dir="r" state="M"/>
    <connection from=":center_9" to="6" fromLane="0" toLane="0" dir="s" state="M"/>
    <connection from=":center_10" to="5" fromLane="0" toLane="0" via=":center_20_0" dir="l" state="m"/>
    <connection from=":center_20" to="5" fromLane="0" toLane="0" dir="l" state="M"/>
    <connection from=":center_11" to="8" fromLane="0" toLane="0" via=":center_21_0" dir="t" state="m"/>
    <connection from=":center_21" to="8" fromLane="0" toLane="0" dir="t" state="M"/>
    <connection from=":center_12" to="8" fromLane="0" toLane="0" dir="r" state="M"/>
    <connection from=":center_13" to="7" fromLane="0" toLane="0" dir="s" state="M"/>
    <connection from=":center_14" to="6" fromLane="0" toLane="0" via=":center_22_0" dir="l" state="m"/>
    <connection from=":center_22" to="6" fromLane="0" toLane="0" dir="l" state="M"/>
    <connection from=":center_15" to="5" fromLane="0" toLane="0" via=":center_23_0" dir="t" state="m"/>
    <connection from=":center_23" to="5" fromLane="0" toLane="0" dir="t" state="M"/>
    <connection from=":n1_0" to="1" fromLane="0" toLane="0" dir="t" state="M"/>
    <connection from=":n2_0" to="2" fromLane="0" toLane="0" dir="t" state="M"/>
    <connection from=":n3_0" to="3" fromLane="0" toLane="0" dir="t" state="M"/>
    <connection from=":n4_0" to="4" fromLane="0" toLane="0" dir="t" state="M"/>

</net>
