<nodes>
    <node id="n1" x="-250" y="0" type="priority"/>
    <node id="n2" x="0" y="250" type="priority"/>
    <node id="n3" x="250" y="0" type="priority"/>
    <node id="n4" x="0" y="-250" type="priority"/>
    <node id="center" x="0" y="0" type="traffic_light"/>
</nodes>
