<routes>
    <vType id="car" accel="2.0" decel="4.5" sigma="0.5" length="5" maxSpeed="13.89" color="1,0,0"/>
    <route id="north_south" edges="2 7"/>
    <route id="south_north" edges="4 5"/>
    <route id="east_west" edges="3 6"/>
    <route id="west_east" edges="1 8"/>
    <flow id="flow1" type="car" route="north_south" begin="0" end="1000" vehsPerHour="500"/>
    <flow id="flow2" type="car" route="south_north" begin="0" end="1000" vehsPerHour="500"/>
    <flow id="flow3" type="car" route="east_west" begin="0" end="1000" vehsPerHour="500"/>
    <flow id="flow4" type="car" route="west_east" begin="0" end="1000" vehsPerHour="500"/>
</routes>
